

 <GENCASE>  Copyright (c) 2020 by Dr Jose M. Dominguez
 All rights reserved.

 GenCase is a free tool for DualSPHysics simulations.
 DualSPHysics project is an international collaboration between
 University of Vigo (Spain) and University of Manchester (UK).

 Redistribution and use in source and binary forms, with or without
 modification, are permitted provided that the following conditions
 are met:
 * Redistributions of source code must retain the above copyright
   notice, this list of conditions and the following disclaimer.
 * Redistributions in binary form must reproduce the above copyright
   notice, this list of conditions and the following disclaimer in the
   documentation and/or other materials provided with the distribution.
 * Neither the name of the GenCase nor the names of its contributors
   may be used to endorse or promote products derived from this software
   without specific prior written permission.

 THIS SOFTWARE IS PROVIDED BY THE COPYRIGHT HOLDERS AND CONTRIBUTORS "AS IS"
 AND ANY EXPRESS OR IMPLIED WARRANTIES, INCLUDING, BUT NOT LIMITED TO, THE
 IMPLIED WARRANTIES OF MERCHANTABILITY AND FITNESS FOR A PARTICULAR PURPOSE
 ARE DISCLAIMED. IN NO EVENT SHALL THE COPYRIGHT OWNER BE LIABLE FOR ANY
 DIRECT, INDIRECT, INCIDENTAL, SPECIAL, EXEMPLARY, OR CONSEQUENTIAL DAMAGES
 (INCLUDING, BUT NOT LIMITED TO, PROCUREMENT OF SUBSTITUTE GOODS OR SERVICES;
 LOSS OF USE, DATA, OR PROFITS; OR BUSINESS INTERRUPTION) HOWEVER CAUSED AND
 ON ANY THEORY OF LIABILITY, WHETHER IN CONTRACT, STRICT LIABILITY, OR TORT
 (INCLUDING NEGLIGENCE OR OTHERWISE) ARISING IN ANY WAY OUT OF THE USE OF
 THIS SOFTWARE, EVEN IF ADVISED OF THE POSSIBILITY OF SUCH DAMAGE.


GenCase v5.0.278c (30-10-2023)
===============================
OmpThreads: 4

[LoadXMLInit]
List: MAIN

Total operations: 10
[LoadXMLInit-End  time:0.001s]

[Draw]
List of available variables: Gravity_x=[0]  Gravity_y=[0]  Gravity_z=[-9.81]  Rhop0=[1000]  MResId=[0]  Dp=[0.01]  PosMin_x=[0]  PosMin_y=[0]  PosMin_z=[0]  PosMax_x=[1]  PosMax_y=[1]  PosMax_z=[7]  CaseName=["Case"]  Data2D=[0]  Data2DPosy=[0]  H=[0.0207846]  MassBound=[0.001]  MassFluid=[0.001]

Mk size: 1 bytes
Case limits: (0,0,0) - (1,1,7)
Distance between points (Dp): 0.01
Reference position: (0,0,0)
Case domain: (0,0,0)-(99,99,699)
Domain points: 100 x 100 x 700 = 7000000
Case parts: 1 x 700z
Memory: 0.01Gb 6.68Mb (7000000)

> MAIN
FileShapes> _Dp.vtk  shapes:1202  points:564   (time:0.003s)
FileShapes> _Actual.vtk  shapes:1202  points:606   (time:0.001s)
<MAIN (Operations= 7+3+1 = 11)

Triangles: 1212 (0 ignored)
[Draw-End  time:0.023s]

[LoadsXMLConfig]
Execution parameters.
Initials configuration.
Floating bodies configuration.
Properties configuration.
Predefined motion configuration.
[LoadsXMLConfig-End  time:0.000s]

[PreparePoints]
Computing Vtk-Cells data...  (time:0.156s)
BitSizeTot: 26 (2 + 7+7+10)
Points loaded: 568125
Sorting points by Z...
Sorting points by Mk...

List of Points:
Points -> Fixed-Boundary particles:
  block[  0] (mk: 10):  19727  -->   19727
  block[  1] (mk: 11):   6375  -->    6375
Points -> Fluid particles:
  block[  2] (mk:  1): 542023  -->  542023

Particle summary:
  Fixed....: 26102  id:(0-26101)   MKs:2 (10-11)
  Moving...: 0
  Floating.: 0
  Fluid....: 542023  id:(26102-568124)   MKs:1 (1)

Total particles: 568125 (bound=26102 (fx=26102 mv=0 ft=0) fluid=542023)
Total MK blocks: 3 (bound=2 (fx=2 mv=0 ft=0) fluid=1)

Maximum depth: 1 (automatic)
Speed of system: 3.13209 (automatic)
Speed of sound: max(coefsound*speedsystem,10*sqrt(g*depth))
Speed of sound: 62.6418 max(62.6418,31.3209)
Speed of sound: 62.6418 (automatic)

Coefh:1.200000 (hdp:2.078461)

[PreparePoints-End  time:0.224s]

[SaveCase3D]
C:/Users/Syauqy/Downloads/FirstCase/Case/Case_out/Case_MkCells.vtk  (time:0.004s, shapes:21938, points:87752)
C:/Users/Syauqy/Downloads/FirstCase/Case/Case_out/Case.bi4<double>  (time:0.010s)
C:/Users/Syauqy/Downloads/FirstCase/Case/Case_out/Case_All.vtk  (time: 0.026s)
C:/Users/Syauqy/Downloads/FirstCase/Case/Case_out/Case_Bound.vtk  (time: 0.003s)
C:/Users/Syauqy/Downloads/FirstCase/Case/Case_out/Case_Fluid.vtk  (time: 0.025s)
C:/Users/Syauqy/Downloads/FirstCase/Case/Case_out/Case.xml  (time:0.016s)
 
Geometry file copied: Tube.stl (xml row:40)

Save files time: 0.085s

Particle limits:
  X range: 0 to 0.99 [m]
  Y range: 0 to 0.99 [m]
  Z range: 0 to 5.5 [m]

[SaveCase3D-End  time:0.142s]


Time of execution: 0.391 sec. (4 threads)

Finished execution (code=0).

