

 <GENCASE>  Copyright (c) 2020 by Dr Jose M. Dominguez
 All rights reserved.

 GenCase is a free tool for DualSPHysics simulations.
 DualSPHysics project is an international collaboration between
 University of Vigo (Spain) and University of Manchester (UK).

 Redistribution and use in source and binary forms, with or without
 modification, are permitted provided that the following conditions
 are met:
 * Redistributions of source code must retain the above copyright
   notice, this list of conditions and the following disclaimer.
 * Redistributions in binary form must reproduce the above copyright
   notice, this list of conditions and the following disclaimer in the
   documentation and/or other materials provided with the distribution.
 * Neither the name of the GenCase nor the names of its contributors
   may be used to endorse or promote products derived from this software
   without specific prior written permission.

 THIS SOFTWARE IS PROVIDED BY THE COPYRIGHT HOLDERS AND CONTRIBUTORS "AS IS"
 AND ANY EXPRESS OR IMPLIED WARRANTIES, INCLUDING, BUT NOT LIMITED TO, THE
 IMPLIED WARRANTIES OF MERCHANTABILITY AND FITNESS FOR A PARTICULAR PURPOSE
 ARE DISCLAIMED. IN NO EVENT SHALL THE COPYRIGHT OWNER BE LIABLE FOR ANY
 DIRECT, INDIRECT, INCIDENTAL, SPECIAL, EXEMPLARY, OR CONSEQUENTIAL DAMAGES
 (INCLUDING, BUT NOT LIMITED TO, PROCUREMENT OF SUBSTITUTE GOODS OR SERVICES;
 LOSS OF USE, DATA, OR PROFITS; OR BUSINESS INTERRUPTION) HOWEVER CAUSED AND
 ON ANY THEORY OF LIABILITY, WHETHER IN CONTRACT, STRICT LIABILITY, OR TORT
 (INCLUDING NEGLIGENCE OR OTHERWISE) ARISING IN ANY WAY OUT OF THE USE OF
 THIS SOFTWARE, EVEN IF ADVISED OF THE POSSIBILITY OF SUCH DAMAGE.


GenCase v5.0.278c (30-10-2023)
===============================
OmpThreads: 4

[LoadXMLInit]
List: MAIN

Total operations: 13
[LoadXMLInit-End  time:0.108s]

[Draw]
List of available variables: Gravity_x=[0]  Gravity_y=[0]  Gravity_z=[-9.81]  Rhop0=[995]  MResId=[0]  Dp=[0.001]  PosMin_x=[-0.5]  PosMin_y=[-1]  PosMin_z=[-0.85]  PosMax_x=[0.5]  PosMax_y=[3]  PosMax_z=[1.05]  CaseName=["SquareNormalO3cm"]  Data2D=[0]  Data2DPosy=[0]  H=[0.00207846]  MassBound=[9.95e-07]  MassFluid=[9.95e-07]

Mk size: 1 bytes
Case limits: (-0.5,-1,-0.85) - (0.5,3,1.05)
Distance between points (Dp): 0.001
Reference position: (0,0,0)
Case domain: (0,0,0)-(999,3999,1898)
Domain points: 1000 x 4000 x 1899 = 7596000000
Case parts: 3 x 536z + 291z
Memory: 7.07Gb 7244.11Mb (7596000000)

> MAIN
FileShapes> _Dp.vtk  shapes:34695  points:18711   (time:0.107s)
FileShapes> _Actual.vtk  shapes:34695  points:19265   (time:0.004s)
<MAIN (Operations= 10+3+1 = 14)

Triangles: 34695 (0 ignored)
[Draw-End  time:26.198s]

[LoadsXMLConfig]
Execution parameters.
Initials configuration.
Floating bodies configuration.
Properties configuration.
Predefined motion configuration.
[LoadsXMLConfig-End  time:0.000s]

[PreparePoints]
